5l2s.A
  PyMOL2.5          3D                             0

 70 74  0  0  0  0  0  0  0  0999 V2000
   -2.0435   15.7457   44.7245 N   0  0  0  0  0  0  0  0  0  0  0  0
   -1.6994   15.6763   42.3433 C   0  0  0  0  0  0  0  0  0  0  0  0
   -1.1828    8.0871   43.9984 C   0  0  0  0  0  0  0  0  0  0  0  0
   -0.6257   19.7548   43.2330 N   0  0  0  0  0  0  0  0  0  0  0  0
   -0.4641   18.4655   42.8965 C   0  0  0  0  0  0  0  0  0  0  0  0
   -1.2681    8.9637   45.1925 N   0  3  0  0  0  0  0  0  0  0  0  0
    0.1454    7.4045   43.8503 C   0  0  0  0  0  0  0  0  0  0  0  0
    0.2251   17.9918   41.8396 N   0  0  0  0  0  0  0  0  0  0  0  0
    0.8108   18.8894   41.0205 C   0  0  0  0  0  0  0  0  0  0  0  0
    0.6717   20.2998   41.2718 C   0  0  0  0  0  0  0  0  0  0  0  0
   -0.0599   20.6529   42.4142 C   0  0  0  0  0  0  0  0  0  0  0  0
   -1.0582   17.5885   43.7633 N   0  0  0  0  0  0  0  0  0  0  0  0
   -1.6217   16.3269   43.5858 C   0  0  0  0  0  0  0  0  0  0  0  0
   -2.2171   14.3961   42.3130 C   0  0  0  0  0  0  0  0  0  0  0  0
   -2.6384   13.7713   43.4765 C   0  0  0  0  0  0  0  0  0  0  0  0
   -2.5314   14.4975   44.6507 C   0  0  0  0  0  0  0  0  0  0  0  0
   -3.1774   12.3568   43.4586 C   0  0  0  0  0  0  0  0  0  0  0  0
    1.5803   18.2939   39.8934 C   0  0  0  0  0  0  0  0  0  0  0  0
    1.3767   16.9625   39.5241 C   0  0  0  0  0  0  0  0  0  0  0  0
    2.0911   16.4361   38.4531 C   0  0  0  0  0  0  0  0  0  0  0  0
    3.0016   17.1737   37.6942 C   0  0  0  0  0  0  0  0  0  0  0  0
    3.1656   18.4988   38.0899 C   0  0  0  0  0  0  0  0  0  0  0  0
    2.5032   19.0452   39.1610 C   0  0  0  0  0  0  0  0  0  0  0  0
    2.1007   15.1420   37.8891 N   0  0  0  0  0  0  0  0  0  0  0  0
    3.0093   15.2088   36.8476 C   0  0  0  0  0  0  0  0  0  0  0  0
    3.5587   16.3863   36.7022 N   0  0  0  0  0  0  0  0  0  0  0  0
    3.3021   14.0393   35.9838 C   0  0  0  0  0  0  0  0  0  0  0  0
    1.5669   13.8964   38.5011 C   0  0  0  0  0  0  0  0  0  0  0  0
    0.0502   13.8903   38.4971 C   0  0  0  0  0  0  0  0  0  0  0  0
    2.1542   13.6598   39.8795 C   0  0  0  0  0  0  0  0  0  0  0  0
   -2.5344   11.4482   44.4193 N   0  0  0  0  0  0  0  0  0  0  0  0
   -3.2935   10.1993   44.5371 C   0  0  0  0  0  0  0  0  0  0  0  0
   -2.6579    9.2799   45.5592 C   0  0  0  0  0  0  0  0  0  0  0  0
   -0.4976   10.2057   45.0291 C   0  0  0  0  0  0  0  0  0  0  0  0
   -1.1543   11.1306   44.0158 C   0  0  0  0  0  0  0  0  0  0  0  0
    1.1106   21.2843   40.4526 F   0  0  0  0  0  0  0  0  0  0  0  0
    3.9979   19.2803   37.3680 F   0  0  0  0  0  0  0  0  0  0  0  0
   -1.3644   16.1625   41.4389 H   0  0  0  0  0  0  0  0  0  0  0  0
   -0.8571    8.4331   45.9473 H   0  0  0  0  0  0  0  0  0  0  0  0
   -0.1734   21.7015   42.6465 H   0  0  0  0  0  0  0  0  0  0  0  0
   -1.0952   17.9204   44.7165 H   0  0  0  0  0  0  0  0  0  0  0  0
   -2.2946   13.8749   41.3702 H   0  0  0  0  0  0  0  0  0  0  0  0
   -1.9566    7.3233   44.0752 H   0  0  0  0  0  0  0  0  0  0  0  0
   -1.3592    8.6950   43.1109 H   0  0  0  0  0  0  0  0  0  0  0  0
   -2.8618   14.0293   45.5661 H   0  0  0  0  0  0  0  0  0  0  0  0
    0.6718   16.3481   40.0645 H   0  0  0  0  0  0  0  0  0  0  0  0
    2.6981   20.0698   39.4415 H   0  0  0  0  0  0  0  0  0  0  0  0
    1.8825   13.0537   37.8860 H   0  0  0  0  0  0  0  0  0  0  0  0
    0.3387    6.7911   44.7303 H   0  0  0  0  0  0  0  0  0  0  0  0
    0.9301    8.1544   43.7505 H   0  0  0  0  0  0  0  0  0  0  0  0
    0.1320    6.7723   42.9625 H   0  0  0  0  0  0  0  0  0  0  0  0
   -3.0345   11.9504   42.4573 H   0  0  0  0  0  0  0  0  0  0  0  0
   -4.2426   12.3952   43.6866 H   0  0  0  0  0  0  0  0  0  0  0  0
    4.0428   14.3177   35.2342 H   0  0  0  0  0  0  0  0  0  0  0  0
    2.3870   13.7158   35.4878 H   0  0  0  0  0  0  0  0  0  0  0  0
    3.6917   13.2249   36.5947 H   0  0  0  0  0  0  0  0  0  0  0  0
   -0.3106   12.9672   38.9508 H   0  0  0  0  0  0  0  0  0  0  0  0
   -0.3108   13.9559   37.4707 H   0  0  0  0  0  0  0  0  0  0  0  0
   -0.3181   14.7433   39.0670 H   0  0  0  0  0  0  0  0  0  0  0  0
    1.7421   12.7411   40.2972 H   0  0  0  0  0  0  0  0  0  0  0  0
    1.9048   14.4983   40.5296 H   0  0  0  0  0  0  0  0  0  0  0  0
    3.2377   13.5697   39.8022 H   0  0  0  0  0  0  0  0  0  0  0  0
   -4.3131   10.4283   44.8472 H   0  0  0  0  0  0  0  0  0  0  0  0
   -3.3119    9.6992   43.5688 H   0  0  0  0  0  0  0  0  0  0  0  0
   -2.6669    9.7693   46.5331 H   0  0  0  0  0  0  0  0  0  0  0  0
   -3.2319    8.3548   45.6121 H   0  0  0  0  0  0  0  0  0  0  0  0
    0.5071    9.9584   44.6862 H   0  0  0  0  0  0  0  0  0  0  0  0
   -0.4380   10.7162   45.9903 H   0  0  0  0  0  0  0  0  0  0  0  0
   -1.1698   10.6412   43.0420 H   0  0  0  0  0  0  0  0  0  0  0  0
   -0.5794   12.0542   43.9491 H   0  0  0  0  0  0  0  0  0  0  0  0
  2 13  4  0  0  0  0
  2 38  1  0  0  0  0
  3  6  1  0  0  0  0
  3  7  1  0  0  0  0
  3 43  1  0  0  0  0
  3 44  1  0  0  0  0
  4  5  4  0  0  0  0
  5  8  4  0  0  0  0
  5 12  1  0  0  0  0
  6 33  1  0  0  0  0
  6 34  1  0  0  0  0
  6 39  1  0  0  0  0
  7 49  1  0  0  0  0
  7 50  1  0  0  0  0
  7 51  1  0  0  0  0
  8  9  4  0  0  0  0
  9 10  4  0  0  0  0
  9 18  1  0  0  0  0
 10 11  4  0  0  0  0
 10 36  1  0  0  0  0
  4 11  4  0  0  0  0
 11 40  1  0  0  0  0
 12 41  1  0  0  0  0
  1 13  4  0  0  0  0
 12 13  1  0  0  0  0
  2 14  4  0  0  0  0
 14 15  4  0  0  0  0
 14 42  1  0  0  0  0
 15 17  1  0  0  0  0
  1 16  4  0  0  0  0
 15 16  4  0  0  0  0
 16 45  1  0  0  0  0
 17 31  1  0  0  0  0
 17 52  1  0  0  0  0
 17 53  1  0  0  0  0
 18 19  4  0  0  0  0
 19 20  4  0  0  0  0
 19 46  1  0  0  0  0
 20 24  1  0  0  0  0
 20 21  4  0  0  0  0
 21 22  4  0  0  0  0
 21 26  1  0  0  0  0
 22 37  1  0  0  0  0
 18 23  4  0  0  0  0
 22 23  4  0  0  0  0
 23 47  1  0  0  0  0
 24 25  1  0  0  0  0
 25 26  2  0  0  0  0
 25 27  1  0  0  0  0
 27 54  1  0  0  0  0
 27 55  1  0  0  0  0
 27 56  1  0  0  0  0
 24 28  1  0  0  0  0
 28 48  1  0  0  0  0
 28 29  1  0  0  0  0
 29 57  1  0  0  0  0
 29 58  1  0  0  0  0
 29 59  1  0  0  0  0
 28 30  1  0  0  0  0
 30 60  1  0  0  0  0
 30 61  1  0  0  0  0
 30 62  1  0  0  0  0
 31 32  1  0  0  0  0
 32 33  1  0  0  0  0
 32 63  1  0  0  0  0
 32 64  1  0  0  0  0
 33 65  1  0  0  0  0
 33 66  1  0  0  0  0
 34 67  1  0  0  0  0
 34 68  1  0  0  0  0
 31 35  1  0  0  0  0
 34 35  1  0  0  0  0
 35 69  1  0  0  0  0
 35 70  1  0  0  0  0
M  END
$$$$
