8fd9.A
  PyMOL2.5          3D                             0

 58 62  0  0  0  0  0  0  0  0999 V2000
   -0.0581   14.6821   43.8579 C   0  0  0  0  0  0  0  0  0  0  0  0
    0.3515   13.6622   42.8727 N   0  0  0  0  0  0  0  0  0  0  0  0
    0.1232   12.4813   41.0189 O   0  0  0  0  0  0  0  0  0  0  0  0
    0.6684   14.1929   45.1221 C   0  0  0  0  0  0  0  0  0  0  0  0
    1.0516   16.4078   42.3810 N   0  0  0  0  0  0  0  0  0  0  0  0
    5.2940   20.7996   38.4170 O   0  0  0  0  0  0  0  0  0  0  0  0
    1.9452   13.6261   44.5733 C   0  0  0  0  0  0  0  0  0  0  0  0
   -0.7946   19.8392   44.8666 N   0  0  0  0  0  0  0  0  0  0  0  0
    1.4662   12.8412   43.3755 C   0  0  0  0  0  0  0  0  0  0  0  0
    0.4689   20.7445   43.1753 N   0  0  0  0  0  0  0  0  0  0  0  0
    0.2677   16.0849   43.4471 C   0  0  0  0  0  0  0  0  0  0  0  0
    3.4119   20.9189   37.1297 N   0  0  0  0  0  0  0  0  0  0  0  0
    0.3183   18.3370   43.3786 C   0  0  0  0  0  0  0  0  0  0  0  0
    2.9307   21.8477   35.1026 N   0  0  0  0  0  0  0  0  0  0  0  0
   -0.2298   13.4525   41.6763 C   0  0  0  0  0  0  0  0  0  0  0  0
   -0.2017   17.2413   44.0614 N   0  0  0  0  0  0  0  0  0  0  0  0
    1.1035   17.8045   42.3448 C   0  0  0  0  0  0  0  0  0  0  0  0
   -1.0170   17.4836   45.1567 C   0  0  0  0  0  0  0  0  0  0  0  0
    0.0100   19.6599   43.7876 C   0  0  0  0  0  0  0  0  0  0  0  0
    1.8714   18.5020   41.2906 C   0  0  0  0  0  0  0  0  0  0  0  0
   -1.2825   18.7798   45.5141 C   0  0  0  0  0  0  0  0  0  0  0  0
   -1.2070   14.2688   41.2354 C   0  0  0  0  0  0  0  0  0  0  0  0
    1.5089   18.3833   39.9535 C   0  0  0  0  0  0  0  0  0  0  0  0
    2.9784   19.2817   41.6093 C   0  0  0  0  0  0  0  0  0  0  0  0
    2.2151   19.0410   38.9719 C   0  0  0  0  0  0  0  0  0  0  0  0
    3.6875   19.9340   40.6260 C   0  0  0  0  0  0  0  0  0  0  0  0
    3.3243   19.8174   39.2892 C   0  0  0  0  0  0  0  0  0  0  0  0
   -2.1231   13.9090   40.3587 C   0  0  0  0  0  0  0  0  0  0  0  0
    4.1086   20.5404   38.2413 C   0  0  0  0  0  0  0  0  0  0  0  0
   -3.0510   14.8447   39.6497 C   0  0  0  0  0  0  0  0  0  0  0  0
    3.9024   21.5314   35.9657 C   0  0  0  0  0  0  0  0  0  0  0  0
    5.2512   21.7871   35.7163 C   0  0  0  0  0  0  0  0  0  0  0  0
    5.5860   22.3927   34.5292 C   0  0  0  0  0  0  0  0  0  0  0  0
    3.2984   22.4381   33.9537 C   0  0  0  0  0  0  0  0  0  0  0  0
    4.5988   22.7271   33.6275 C   0  0  0  0  0  0  0  0  0  0  0  0
   -1.1369   14.7626   43.9913 H   0  0  0  0  0  0  0  0  0  0  0  0
    2.4189   20.7352   37.1472 H   0  0  0  0  0  0  0  0  0  0  0  0
   -1.4365   16.6630   45.7198 H   0  0  0  0  0  0  0  0  0  0  0  0
   -1.9220   18.9531   46.3670 H   0  0  0  0  0  0  0  0  0  0  0  0
    0.6638   17.7681   39.6821 H   0  0  0  0  0  0  0  0  0  0  0  0
    3.2852   19.3766   42.6404 H   0  0  0  0  0  0  0  0  0  0  0  0
    1.9035   18.9529   37.9416 H   0  0  0  0  0  0  0  0  0  0  0  0
    4.5367   20.5440   40.8966 H   0  0  0  0  0  0  0  0  0  0  0  0
    0.0882   13.4272   45.6370 H   0  0  0  0  0  0  0  0  0  0  0  0
    0.8670   15.0188   45.8052 H   0  0  0  0  0  0  0  0  0  0  0  0
    6.0102   21.5168   36.4355 H   0  0  0  0  0  0  0  0  0  0  0  0
    6.6204   22.6060   34.3032 H   0  0  0  0  0  0  0  0  0  0  0  0
    2.5257   22.7004   33.2462 H   0  0  0  0  0  0  0  0  0  0  0  0
    4.8426   23.2038   32.6896 H   0  0  0  0  0  0  0  0  0  0  0  0
    2.6321   14.4185   44.2760 H   0  0  0  0  0  0  0  0  0  0  0  0
    2.4326   12.9768   45.3006 H   0  0  0  0  0  0  0  0  0  0  0  0
    2.2533   12.7470   42.6274 H   0  0  0  0  0  0  0  0  0  0  0  0
    0.2166   21.6614   43.5156 H   0  0  0  0  0  0  0  0  0  0  0  0
    1.1224   11.8490   43.6681 H   0  0  0  0  0  0  0  0  0  0  0  0
    1.0702   20.6529   42.3690 H   0  0  0  0  0  0  0  0  0  0  0  0
   -3.7013   14.2768   38.9845 H   0  0  0  0  0  0  0  0  0  0  0  0
   -2.4705   15.5599   39.0670 H   0  0  0  0  0  0  0  0  0  0  0  0
   -3.6571   15.3791   40.3813 H   0  0  0  0  0  0  0  0  0  0  0  0
  1  4  1  0  0  0  0
  1 36  1  0  0  0  0
  1  2  1  0  0  0  0
  2  9  1  0  0  0  0
  2 15  1  0  0  0  0
  4  7  1  0  0  0  0
  4 44  1  0  0  0  0
  4 45  1  0  0  0  0
  7 50  1  0  0  0  0
  7 51  1  0  0  0  0
  8 19  2  0  0  0  0
  8 21  1  0  0  0  0
  7  9  1  0  0  0  0
  9 52  1  0  0  0  0
  9 54  1  0  0  0  0
 10 53  1  0  0  0  0
 10 55  1  0  0  0  0
  1 11  1  0  0  0  0
  5 11  2  0  0  0  0
 11 16  1  0  0  0  0
 12 37  1  0  0  0  0
 13 16  1  0  0  0  0
 13 17  2  0  0  0  0
 13 19  1  0  0  0  0
  3 15  2  0  0  0  0
 15 22  1  0  0  0  0
  5 17  1  0  0  0  0
 17 20  1  0  0  0  0
 16 18  1  0  0  0  0
 18 38  1  0  0  0  0
 10 19  1  0  0  0  0
 20 23  4  0  0  0  0
 18 21  2  0  0  0  0
 21 39  1  0  0  0  0
 22 28  1  0  0  0  0
 23 25  4  0  0  0  0
 23 40  1  0  0  0  0
 20 24  4  0  0  0  0
 24 26  4  0  0  0  0
 24 41  1  0  0  0  0
 25 27  4  0  0  0  0
 25 42  1  0  0  0  0
 26 27  4  0  0  0  0
 26 43  1  0  0  0  0
  6 29  2  0  0  0  0
 12 29  1  0  0  0  0
 27 29  1  0  0  0  0
 28 30  1  0  0  0  0
 30 56  1  0  0  0  0
 30 57  1  0  0  0  0
 30 58  1  0  0  0  0
 12 31  1  0  0  0  0
 14 31  4  0  0  0  0
 31 32  4  0  0  0  0
 32 46  1  0  0  0  0
 32 33  4  0  0  0  0
 33 35  4  0  0  0  0
 33 47  1  0  0  0  0
 14 34  4  0  0  0  0
 34 48  1  0  0  0  0
 34 35  4  0  0  0  0
 35 49  1  0  0  0  0
M  END
$$$$
